Circuit: * D:\Technical\LTSpice\ASK_FSK_mix\ASK.asc

Early termination of direct N-R iteration.
Direct Newton iteration failed to find .op point.  (Use ".option noopiter" to skip.)
Starting Gmin stepping
Gmin = 10
vernier = 0.5
vernier = 0.25
vernier = 0.125
Gmin = 5.5165
vernier = 0.0625
vernier = 0.03125
vernier = 0.015625
vernier = 0.0078125
Gmin = 5.49501
vernier = 0.00390625
vernier = 0.00195313
vernier = 0.000976563
vernier = 0.000488281
Gmin = 5.50104
Gmin = 0
Gmin stepping failed

Starting source stepping with srcstepmethod=0
Source Step = 3.0303%
Source Step = 33.3333%
Source Step = 63.6364%
Source Step = 93.9394%
Source stepping succeeded in finding the operating point.


Date: Thu Aug 11 19:34:46 2022
Total elapsed time: 0.752 seconds.

tnom = 27
temp = 27
method = modified trap
totiter = 34540
traniter = 32806
tranpoints = 9818
accept = 7010
rejected = 2808
matrix size = 154
fillins = 472
solver = Normal
Thread vector: 9.2/7.8[3] 6.0/4.2[3] 3.7/2.9[3] 0.4/2.3[1]  2592/500
Matrix Compiler1: 32.50 KB object code size  4.7/1.9/[1.6]
Matrix Compiler2: 20.92 KB object code size  2.5/2.5/[0.9]

